<net>
    <nodes>
        <node id="1" x="0.0" y="0.0" type="priority"/>
        <node id="2" x="500.0" y="0.0" type="priority"/>
    </nodes>
    <edges>
        <edge id="1to2" from="1" to="2" numLanes="1" speed="50"/>
    </edges>
</net>
