<?xml version="1.0" encoding="UTF-8"?>
<configuration>
    <input>
        <net-file value="test.net.xml"/>
        <route-files value="test.rou.xml"/>
    </input>
    <time>
        <begin>0</begin>
        <end>100000</end>
    </time>
</configuration>
