<?xml version="1.0" encoding="UTF-8"?>

<!-- generated on 2024-12-08 21:16:53 by Eclipse SUMO sumo Version 1.21.0
-->

<sumoConfiguration xmlns:xsi="http://www.w3.org/2001/XMLSchema-instance" xsi:noNamespaceSchemaLocation="http://sumo.dlr.de/xsd/sumoConfiguration.xsd">

    <input>
        <net-file value="intersection.net.xml"/>
        <route-files value="intersection.rou.xml"/>
        <additional-files value="intersection.add.xml"/>
    </input>

</sumoConfiguration>
