<?xml version="1.0" encoding="UTF-8"?>

<!-- generated on 2024-12-13 19:27:01 by Eclipse SUMO netedit Version 1.21.0
<neteditConfiguration xmlns:xsi="http://www.w3.org/2001/XMLSchema-instance" xsi:noNamespaceSchemaLocation="http://sumo.dlr.de/xsd/neteditConfiguration.xsd">

    <input>
        <sumocfg-file value="/home/hamza/Documents/master&apos;s/AI/AI-TrafficControl/intersection.sumocfg"/>
        <additional-files value="/home/hamza/Documents/master&apos;s/AI/AI-TrafficControl/intersection.add.xml"/>
        <route-files value="/home/hamza/Documents/master&apos;s/AI/AI-TrafficControl/intersection.rou.xml"/>
        <sumo-net-file value="/home/hamza/Documents/master&apos;s/AI/AI-TrafficControl/intersection.net.xml"/>
    </input>

    <output>
        <output-file value="/home/hamza/Documents/master&apos;s/AI/AI-TrafficControl/intersection.net.xml"/>
    </output>

    <processing>
        <geometry.min-radius.fix.railways value="false"/>
        <geometry.max-grade.fix value="false"/>
        <offset.disable-normalization value="true"/>
        <lefthand value="0"/>
    </processing>

    <junctions>
        <no-turnarounds value="true"/>
        <junctions.corner-detail value="5"/>
        <junctions.limit-turn-speed value="5.50"/>
        <rectangular-lane-cut value="0"/>
    </junctions>

    <pedestrian>
        <walkingareas value="0"/>
    </pedestrian>

</neteditConfiguration>
-->

<net version="1.20" junctionCornerDetail="5" limitTurnSpeed="5.50" xmlns:xsi="http://www.w3.org/2001/XMLSchema-instance" xsi:noNamespaceSchemaLocation="http://sumo.dlr.de/xsd/net_file.xsd">

    <location netOffset="0.00,0.00" convBoundary="-52.21,-19.89,42.53,38.13" origBoundary="-10000000000.00,-10000000000.00,10000000000.00,10000000000.00" projParameter="!"/>

    <edge id=":clusterJ4_J6_J7_0" function="internal">
        <lane id=":clusterJ4_J6_J7_0_0" index="0" speed="7.28" length="9.63" shape="-20.73,12.33 -21.62,9.77 -23.01,7.93 -24.90,6.82 -27.29,6.45"/>
    </edge>
    <edge id=":clusterJ4_J6_J7_1" function="internal">
        <lane id=":clusterJ4_J6_J7_1_0" index="0" speed="13.89" length="23.42" shape="-3.88,6.55 -27.29,6.45"/>
    </edge>
    <edge id=":clusterJ4_J6_J7_2" function="internal">
        <lane id=":clusterJ4_J6_J7_2_0" index="0" speed="6.40" length="9.04" shape="-9.24,-2.35 -9.02,0.13 -8.05,1.91 -6.33,2.98 -3.86,3.35"/>
    </edge>
    <edge id=":clusterJ4_J6_J7_3" function="internal">
        <lane id=":clusterJ4_J6_J7_3_0" index="0" speed="13.89" length="23.42" shape="-27.28,3.24 -3.86,3.35"/>
    </edge>

    <edge id="-E0" from="J1" to="clusterJ4_J6_J7" priority="-1" shape="42.53,5.16 -31.57,4.83">
        <lane id="-E0_0" index="0" speed="13.89" length="46.40" shape="42.52,6.76 -3.88,6.55"/>
    </edge>
    <edge id="-E0.74" from="clusterJ4_J6_J7" to="J0" priority="-1" shape="-31.57,4.83 -52.21,4.74">
        <lane id="-E0.74_0" index="0" speed="13.89" length="24.92" shape="-27.29,6.45 -52.22,6.34"/>
    </edge>
    <edge id="E0" from="J0" to="clusterJ4_J6_J7" priority="-1" shape="-52.21,4.74 -20.85,4.87">
        <lane id="E0_0" index="0" speed="13.89" length="24.92" shape="-52.20,3.14 -27.28,3.24"/>
    </edge>
    <edge id="E0.29" from="clusterJ4_J6_J7" to="J1" priority="-1" shape="-20.85,4.87 42.53,5.16">
        <lane id="E0.29_0" index="0" speed="13.89" length="46.40" shape="-3.86,3.35 42.54,3.56"/>
    </edge>
    <edge id="E1" from="J5" to="clusterJ4_J6_J7" priority="-1" shape="-9.89,-19.89 -10.94,-0.52">
        <lane id="E1_0" index="0" speed="13.89" length="17.48" shape="-8.29,-19.80 -9.24,-2.35"/>
    </edge>
    <edge id="E2" from="J3" to="clusterJ4_J6_J7" priority="-1">
        <lane id="E2_0" index="0" speed="13.89" length="26.76" shape="-15.02,38.47 -20.73,12.33"/>
    </edge>

    <tlLogic id="clusterJ4_J6_J7" type="static" programID="0" offset="0">
        <phase duration="42" state="GrGr"/>
        <phase duration="3"  state="yryr"/>
        <phase duration="42" state="rGrG"/>
        <phase duration="3"  state="ryry"/>
    </tlLogic>

    <junction id="J0" type="dead_end" x="-52.21" y="4.74" incLanes="-E0.74_0" intLanes="" shape="-52.21,4.74 -52.22,7.94 -52.21,4.74"/>
    <junction id="J1" type="dead_end" x="42.53" y="5.16" incLanes="E0.29_0" intLanes="" shape="42.53,5.16 42.54,1.96 42.53,5.16"/>
    <junction id="J3" type="dead_end" x="-13.46" y="38.13" incLanes="" intLanes="" shape="-13.46,38.13 -16.59,38.81"/>
    <junction id="J5" type="dead_end" x="-9.89" y="-19.89" incLanes="" intLanes="" shape="-9.89,-19.89 -6.69,-19.72"/>
    <junction id="clusterJ4_J6_J7" type="traffic_light" x="-21.12" y="3.06" incLanes="E2_0 -E0_0 E1_0 E0_0" intLanes=":clusterJ4_J6_J7_0_0 :clusterJ4_J6_J7_1_0 :clusterJ4_J6_J7_2_0 :clusterJ4_J6_J7_3_0" shape="-22.30,12.67 -19.17,11.99 -17.85,9.83 -15.78,9.08 -12.76,8.55 -8.79,8.24 -3.89,8.15 -3.86,1.75 -6.06,1.29 -6.80,0.74 -7.32,-0.04 -7.60,-1.04 -7.64,-2.26 -10.84,-2.44 -12.76,-0.14 -15.06,0.66 -18.24,1.22 -22.31,1.55 -27.27,1.64 -27.30,8.05 -24.97,8.57 -24.05,9.21 -23.30,10.11 -22.71,11.26">
        <request index="0" response="0010" foes="0010" cont="0"/>
        <request index="1" response="0000" foes="0001" cont="0"/>
        <request index="2" response="1000" foes="1000" cont="0"/>
        <request index="3" response="0000" foes="0100" cont="0"/>
    </junction>

    <connection from="-E0" to="-E0.74" fromLane="0" toLane="0" via=":clusterJ4_J6_J7_1_0" tl="clusterJ4_J6_J7" linkIndex="1" dir="s" state="O"/>
    <connection from="E0" to="E0.29" fromLane="0" toLane="0" via=":clusterJ4_J6_J7_3_0" tl="clusterJ4_J6_J7" linkIndex="3" dir="s" state="O"/>
    <connection from="E1" to="E0.29" fromLane="0" toLane="0" via=":clusterJ4_J6_J7_2_0" tl="clusterJ4_J6_J7" linkIndex="2" dir="r" state="o"/>
    <connection from="E2" to="-E0.74" fromLane="0" toLane="0" via=":clusterJ4_J6_J7_0_0" tl="clusterJ4_J6_J7" linkIndex="0" dir="r" state="o"/>

    <connection from=":clusterJ4_J6_J7_0" to="-E0.74" fromLane="0" toLane="0" dir="r" state="M"/>
    <connection from=":clusterJ4_J6_J7_1" to="-E0.74" fromLane="0" toLane="0" dir="s" state="M"/>
    <connection from=":clusterJ4_J6_J7_2" to="E0.29" fromLane="0" toLane="0" dir="r" state="M"/>
    <connection from=":clusterJ4_J6_J7_3" to="E0.29" fromLane="0" toLane="0" dir="s" state="M"/>

</net>
