<?xml version="1.0" encoding="UTF-8"?>

<!-- generated on 2024-11-24 15:15:17 by Eclipse SUMO netedit Version 1.21.0
<neteditConfiguration xmlns:xsi="http://www.w3.org/2001/XMLSchema-instance" xsi:noNamespaceSchemaLocation="http://sumo.dlr.de/xsd/neteditConfiguration.xsd">

    <input>
        <sumocfg-file value="/home/hamza/AI-TrafficControl/test.sumocfg"/>
        <additional-files value="/home/hamza/AI-TrafficControl/test.add.xml"/>
        <route-files value="/home/hamza/AI-TrafficControl/test.rou.xml"/>
        <sumo-net-file value="/home/hamza/Documents/master&apos;s/AI/AI-TrafficControl/test.net.xml"/>
    </input>

    <output>
        <output-file value="/home/hamza/Documents/master&apos;s/AI/AI-TrafficControl/test.net.xml"/>
    </output>

    <processing>
        <offset.disable-normalization value="true"/>
    </processing>

    <junctions>
        <no-turnarounds value="true"/>
    </junctions>

    <netedit>
        <new-network value="false"/>
    </netedit>

</neteditConfiguration>
-->

<net version="1.20" junctionCornerDetail="5" limitTurnSpeed="5.50" xmlns:xsi="http://www.w3.org/2001/XMLSchema-instance" xsi:noNamespaceSchemaLocation="http://sumo.dlr.de/xsd/net_file.xsd">

    <location netOffset="0.00,0.00" convBoundary="-69.93,-2.61,18.04,0.78" origBoundary="10000000000.00,10000000000.00,-10000000000.00,-10000000000.00" projParameter="!"/>

    <edge id="-E0" from="J1" to="J0" priority="-1" spreadType="center" shape="18.03,0.78 -69.93,0.59">
        <lane id="-E0_0" index="0" speed="13.89" length="87.96" shape="18.03,0.78 -69.93,0.59"/>
    </edge>
    <edge id="E0" from="J0" to="J1" priority="-1" spreadType="center" shape="-69.92,-2.61 18.04,-2.42">
        <lane id="E0_0" index="0" speed="13.89" length="87.96" shape="-69.92,-2.61 18.04,-2.42"/>
    </edge>

    <junction id="J0" type="dead_end" x="-69.93" y="-1.01" incLanes="-E0_0" intLanes="" shape="-69.93,-1.01 -69.93,2.19 -69.93,-1.01"/>
    <junction id="J1" type="dead_end" x="18.01" y="-0.82" incLanes="E0_0" intLanes="" shape="18.01,-0.82 18.01,-4.02 18.01,-0.82"/>

</net>
